Version 4
SHEET 1 1700 788
WIRE -880 -224 -960 -224
WIRE -688 -224 -800 -224
WIRE 144 -224 -688 -224
WIRE 912 -224 224 -224
WIRE -688 -160 -688 -224
WIRE -688 -160 -752 -160
WIRE -304 -160 -688 -160
WIRE -112 -160 -240 -160
WIRE -688 -32 -688 -160
WIRE -432 -16 -432 -64
WIRE -368 -16 -432 -16
WIRE 1184 0 1184 -48
WIRE 1296 0 1296 -48
WIRE -432 16 -432 -16
WIRE -368 48 -368 -16
WIRE -960 96 -960 -224
WIRE -688 128 -688 48
WIRE -688 128 -800 128
WIRE -464 128 -688 128
WIRE 1184 144 1184 80
WIRE 1296 144 1296 80
WIRE -112 160 -112 -160
WIRE -112 160 -192 160
WIRE 48 160 -112 160
WIRE 336 176 336 64
WIRE 400 176 336 176
WIRE 784 176 656 176
WIRE -464 192 -688 192
WIRE 784 192 784 176
WIRE 48 240 48 160
WIRE 400 240 48 240
WIRE 912 240 912 -224
WIRE 912 240 656 240
WIRE 992 240 912 240
WIRE -960 256 -960 176
WIRE 400 304 240 304
WIRE 736 304 656 304
WIRE 48 352 48 240
WIRE 400 368 336 368
WIRE 752 368 656 368
WIRE -432 416 -432 304
WIRE -688 480 -688 192
WIRE 48 480 48 432
WIRE 240 480 240 304
WIRE 240 480 48 480
WIRE 336 512 336 368
WIRE 496 512 336 512
WIRE 752 512 752 368
WIRE 752 512 576 512
WIRE 48 608 48 480
WIRE 48 768 48 688
FLAG -432 -64 V+18
IOPIN -432 -64 BiDir
FLAG -432 416 V-18
IOPIN -432 416 BiDir
FLAG 736 304 V+18
IOPIN 736 304 BiDir
FLAG 336 64 V-18
IOPIN 336 64 BiDir
FLAG 1184 144 0
FLAG 1296 144 0
FLAG 1184 -48 V+18
IOPIN 1184 -48 BiDir
FLAG 1296 -48 V-18
IOPIN 1296 -48 BiDir
FLAG 48 768 0
FLAG 784 192 0
FLAG -688 480 0
FLAG 992 240 OUT
IOPIN 992 240 Out
FLAG -752 -160 FB
IOPIN -752 -160 Out
FLAG -800 128 INM
IOPIN -800 128 In
FLAG -960 256 0
SYMBOL res 32 336 R0
SYMATTR InstName R1
SYMATTR Value 250
SYMBOL Opamps\\LTC2057HV -304 160 R0
SYMATTR InstName U1
SYMBOL Opamps\\LT1167 528 272 M180
SYMATTR InstName U2
SYMBOL voltage 1184 -16 R0
WINDOW 123 0 0 Left 2
WINDOW 39 0 0 Left 2
SYMATTR InstName V1
SYMATTR Value 18V
SYMBOL voltage 1296 -16 R0
WINDOW 123 0 0 Left 2
WINDOW 39 0 0 Left 2
SYMATTR InstName V2
SYMATTR Value -18V
SYMBOL res 32 592 R0
SYMATTR InstName R2
SYMATTR Value {Rload}
SYMBOL res 592 496 R90
WINDOW 0 0 56 VBottom 2
WINDOW 3 32 56 VTop 2
SYMATTR InstName R3
SYMATTR Value 5.5k
SYMBOL cap -240 -176 R90
WINDOW 0 0 32 VBottom 2
WINDOW 3 32 32 VTop 2
SYMATTR InstName C1
SYMATTR Value 100p
SYMBOL res 240 -240 R90
WINDOW 0 0 56 VBottom 2
WINDOW 3 32 56 VTop 2
SYMATTR InstName R4
SYMATTR Value 25k
SYMBOL voltage -688 -48 R0
WINDOW 123 24 124 Left 2
WINDOW 39 0 0 Left 2
SYMATTR Value2 AC 1
SYMATTR InstName V4
SYMATTR Value 0V
SYMBOL voltage -960 80 R0
WINDOW 123 0 0 Left 2
WINDOW 39 0 0 Left 2
SYMATTR InstName V3
SYMATTR Value 3.3V
SYMBOL res -784 -240 R90
WINDOW 0 0 56 VBottom 2
WINDOW 3 32 56 VTop 2
SYMATTR InstName R5
SYMATTR Value 25k
TEXT 1128 400 Left 2 !.ac dec 10 100 10Meg
TEXT 1128 368 Left 2 !.step dec param Rload 1000 100e3 1
