Version 4
SHEET 1 2092 788
WIRE -848 -240 -1024 -240
WIRE -544 -240 -768 -240
WIRE 288 -240 -544 -240
WIRE 1056 -240 368 -240
WIRE -544 -176 -544 -240
WIRE -160 -176 -544 -176
WIRE 32 -176 -96 -176
WIRE 1360 -80 1360 -128
WIRE 1472 -80 1472 -128
WIRE -288 -32 -288 -80
WIRE -224 -32 -288 -32
WIRE -288 0 -288 -32
WIRE -224 32 -224 -32
WIRE 1360 64 1360 0
WIRE 1472 64 1472 0
WIRE -1024 80 -1024 -240
WIRE -544 112 -544 -176
WIRE -320 112 -544 112
WIRE 32 144 32 -176
WIRE 32 144 -48 144
WIRE 192 144 32 144
WIRE 480 160 480 48
WIRE 544 160 480 160
WIRE 928 160 800 160
WIRE -320 176 -800 176
WIRE 928 176 928 160
WIRE 192 224 192 144
WIRE 544 224 192 224
WIRE 1056 224 1056 -240
WIRE 1056 224 800 224
WIRE 1136 224 1056 224
WIRE -1024 240 -1024 160
WIRE -800 272 -800 176
WIRE 544 288 384 288
WIRE 880 288 800 288
WIRE -224 320 -224 256
WIRE 192 336 192 224
WIRE 544 352 480 352
WIRE 896 352 800 352
WIRE -288 400 -288 288
WIRE -800 464 -800 352
WIRE 192 464 192 416
WIRE 384 464 384 288
WIRE 384 464 192 464
WIRE 480 496 480 352
WIRE 640 496 480 496
WIRE 896 496 896 352
WIRE 896 496 720 496
WIRE 192 592 192 464
WIRE 192 752 192 672
FLAG -288 -80 V+18
IOPIN -288 -80 BiDir
FLAG -288 400 V-18
IOPIN -288 400 BiDir
FLAG 880 288 V+18
IOPIN 880 288 BiDir
FLAG 480 48 V-18
IOPIN 480 48 BiDir
FLAG 1360 64 0
FLAG 1472 64 0
FLAG 1360 -128 V+18
IOPIN 1360 -128 BiDir
FLAG 1472 -128 V-18
IOPIN 1472 -128 BiDir
FLAG 192 752 0
FLAG 928 176 0
FLAG -800 464 0
FLAG 1136 224 OUT
IOPIN 1136 224 Out
FLAG -224 320 0
FLAG -1024 240 0
SYMBOL res 176 320 R0
SYMATTR InstName R1
SYMATTR Value 250
SYMBOL Opamps\\LTC2057HV -160 144 R0
SYMATTR InstName U1
SYMBOL Opamps\\LT1167 672 256 M180
SYMATTR InstName U2
SYMBOL voltage 1360 -96 R0
WINDOW 123 0 0 Left 2
WINDOW 39 0 0 Left 2
SYMATTR InstName V1
SYMATTR Value 18V
SYMBOL voltage 1472 -96 R0
WINDOW 123 0 0 Left 2
WINDOW 39 0 0 Left 2
SYMATTR InstName V2
SYMATTR Value -18V
SYMBOL res 176 576 R0
SYMATTR InstName R2
SYMATTR Value {RLoad}
SYMBOL res 736 480 R90
WINDOW 0 0 56 VBottom 2
WINDOW 3 32 56 VTop 2
SYMATTR InstName R3
SYMATTR Value 5.5k
SYMBOL cap -96 -192 R90
WINDOW 0 0 32 VBottom 2
WINDOW 3 32 32 VTop 2
SYMATTR InstName C1
SYMATTR Value 100p
SYMBOL res 384 -256 R90
WINDOW 0 0 56 VBottom 2
WINDOW 3 32 56 VTop 2
SYMATTR InstName R4
SYMATTR Value 25k
SYMBOL voltage -800 256 R0
WINDOW 123 24 124 Left 2
WINDOW 39 0 0 Left 2
SYMATTR Value2 AC 1
SYMATTR InstName V3
SYMATTR Value PULSE(1.65 {VIN} 0.2m 10u 10u 0.5m)
SYMBOL voltage -1024 64 R0
WINDOW 123 0 0 Left 2
WINDOW 39 0 0 Left 2
SYMATTR InstName V4
SYMATTR Value 3.3V
SYMBOL res -752 -256 R90
WINDOW 0 0 56 VBottom 2
WINDOW 3 32 56 VTop 2
SYMATTR InstName R6
SYMATTR Value 25k
TEXT 1272 304 Left 2 !.tran 0 1m 0 1u
TEXT 1272 272 Left 2 !.params vin=0
TEXT 1272 240 Left 2 !.step param VIN 0 3.3 0.5
TEXT 1272 208 Left 2 !.step dec param Rload 1000 100e3 1
