.MODEL MLE D
+ IS=1.7448E-21
+ N=2.4195
+ RS=2.1425
+ XTI=45.900
+ EG=2.5000