Version 4
SHEET 1 1608 1040
WIRE -1632 -32 -1920 -32
WIRE -1376 -32 -1536 -32
WIRE -128 -32 -1296 -32
WIRE 464 -32 -128 -32
WIRE 640 -32 464 -32
WIRE 464 32 464 -32
WIRE 640 32 640 -32
WIRE -1104 96 -1472 96
WIRE -1920 176 -1920 -32
WIRE -1696 176 -1920 176
WIRE -1472 176 -1472 96
WIRE -1472 176 -1696 176
WIRE -1424 176 -1472 176
WIRE -1024 176 -1168 176
WIRE -1616 240 -1616 16
WIRE -1424 240 -1616 240
WIRE -1696 304 -1696 176
WIRE -1104 304 -1104 96
WIRE -1104 304 -1168 304
WIRE -1024 304 -1024 176
WIRE -1920 336 -1920 176
WIRE -1120 368 -1168 368
WIRE -1024 416 -1024 384
WIRE -1696 432 -1696 368
WIRE -128 448 -128 -32
WIRE -1120 480 -1120 368
WIRE -128 800 -128 528
WIRE 464 800 464 96
WIRE 640 800 640 96
WIRE -1920 832 -1920 416
FLAG -128 800 0
FLAG 464 800 0
FLAG -1920 832 0
FLAG -1024 416 0
FLAG 640 800 0
FLAG -1696 432 0
FLAG -1120 480 0
SYMBOL cap 448 32 R0
SYMATTR InstName C1
SYMATTR Value 44µF
SYMATTR SpiceLine V=16 Rser=0.01
SYMBOL voltage -1920 320 R0
WINDOW 123 0 0 Left 0
WINDOW 39 24 124 Left 2
SYMATTR InstName V1
SYMATTR Value 12V
SYMATTR SpiceLine Rser=0.01
SYMBOL pmos -1536 16 M270
SYMATTR InstName M2
SYMATTR Value AON7407
SYMBOL voltage -1024 288 R0
WINDOW 123 0 0 Left 0
WINDOW 39 0 0 Left 0
SYMATTR InstName V3
SYMATTR Value PULSE(0 3.3 50u 2n 2n 100u 500n 1)
SYMBOL res -1280 -48 R90
WINDOW 0 0 56 VBottom 2
WINDOW 3 32 56 VTop 2
SYMATTR InstName R2
SYMATTR Value 1
SYMBOL cap 624 32 R0
SYMATTR InstName C2
SYMATTR Value 1000µ
SYMATTR SpiceLine Rser=0.1
SYMBOL current -128 448 R0
WINDOW 123 0 0 Left 0
WINDOW 39 0 0 Left 0
SYMATTR InstName I1
SYMATTR Value PULSE(0 5 50u 10n 10n 250n 500n 200)
SYMBOL PowerProducts\\LTC1693-5 -1296 272 M0
SYMATTR InstName U1
SYMBOL cap -1712 304 R0
SYMATTR InstName C3
SYMATTR Value 0.1µ
TEXT 1488 472 Left 2 !.tran 500u
