Version 4
SHEET 1 1624 680
WIRE -544 -128 -544 -176
WIRE -368 -128 -544 -128
WIRE -256 -128 -368 -128
WIRE 128 -128 -256 -128
WIRE 160 -128 128 -128
WIRE 272 -128 240 -128
WIRE 608 -128 384 -128
WIRE 784 -128 608 -128
WIRE 976 -128 784 -128
WIRE 1008 -128 976 -128
WIRE 608 -112 608 -128
WIRE 976 -80 976 -128
WIRE -256 -48 -256 -128
WIRE 128 -48 128 -128
WIRE 160 -48 128 -48
WIRE 784 -48 784 -128
WIRE 1568 -48 1568 -80
WIRE 608 -16 608 -32
WIRE 608 -16 528 -16
WIRE 160 0 160 -48
WIRE 272 0 272 -128
WIRE 384 0 384 -128
WIRE 608 0 608 -16
WIRE -256 48 -256 16
WIRE 528 64 528 -16
WIRE 528 64 432 64
WIRE 976 64 976 0
WIRE 112 80 32 80
WIRE 752 80 608 80
WIRE 784 80 784 16
WIRE 784 80 752 80
WIRE 1568 96 1568 32
WIRE 752 112 752 80
WIRE 608 144 432 144
WIRE 32 176 32 80
WIRE 32 176 16 176
WIRE 32 208 32 176
WIRE 112 208 32 208
WIRE 528 224 432 224
WIRE 608 240 608 144
WIRE 16 272 16 176
WIRE 272 320 272 288
WIRE 272 320 208 320
WIRE 384 336 384 288
WIRE 384 336 336 336
WIRE 528 352 528 224
WIRE 608 352 608 320
WIRE 608 352 528 352
WIRE 752 352 608 352
WIRE 752 368 752 352
WIRE 608 384 608 352
WIRE -368 400 -368 -128
WIRE 48 400 -368 400
WIRE 208 400 208 320
WIRE 208 400 128 400
WIRE 224 400 208 400
WIRE 336 400 336 336
WIRE 336 400 288 400
WIRE 384 400 336 400
WIRE 528 400 448 400
WIRE 528 464 528 400
WIRE 608 464 528 464
WIRE 752 464 752 432
WIRE 752 464 608 464
WIRE 992 464 752 464
WIRE 1104 464 992 464
WIRE 992 496 992 464
WIRE 752 512 752 464
WIRE 160 528 160 288
WIRE 752 608 752 576
WIRE 992 640 992 576
FLAG 160 528 0
FLAG 752 112 0
FLAG -256 48 0
FLAG 1568 96 0
FLAG 1568 -80 +5v
FLAG -544 -176 +5v
FLAG 752 608 0
FLAG 1104 464 V-
FLAG 1008 -128 v+
FLAG 16 272 0
FLAG 976 64 0
FLAG 992 640 0
SYMBOL PowerProducts\\LT3463 272 144 R0
SYMATTR InstName U1
SYMBOL cap -272 -48 R0
SYMATTR InstName C1
SYMATTR Value 4.7µ
SYMBOL ind 144 -112 R270
WINDOW 0 32 56 VTop 2
WINDOW 3 5 56 VBottom 2
SYMATTR InstName L1
SYMATTR Value 10µ
SYMBOL res 592 -128 R0
SYMATTR InstName R1
SYMATTR Value 4.53Meg
SYMBOL res 592 -16 R0
SYMATTR InstName R2
SYMATTR Value 301k
SYMBOL cap 768 -48 R0
SYMATTR InstName C2
SYMATTR Value 1µ
SYMBOL res 592 224 R0
SYMATTR InstName R3
SYMATTR Value 280k
SYMBOL res 592 368 R0
SYMATTR InstName R4
SYMATTR Value 4.53Meg
SYMBOL cap 736 368 R0
SYMATTR InstName C3
SYMATTR Value 10p
SYMBOL cap 288 384 R90
WINDOW 0 0 32 VBottom 2
WINDOW 3 32 32 VTop 2
SYMATTR InstName C4
SYMATTR Value 0.1µ
SYMBOL ind 144 384 R90
WINDOW 0 5 56 VBottom 2
WINDOW 3 32 56 VTop 2
SYMATTR InstName L2
SYMATTR Value 10µ
SYMBOL voltage 1568 -64 R0
WINDOW 123 0 0 Left 0
WINDOW 39 0 0 Left 0
SYMATTR InstName V1
SYMATTR Value +5
SYMBOL schottky 448 384 R90
WINDOW 0 0 32 VBottom 2
WINDOW 3 32 32 VTop 2
SYMATTR InstName D2
SYMATTR Value B540C
SYMBOL cap 736 512 R0
SYMATTR InstName C5
SYMATTR Value 1µ
SYMBOL res 960 -96 R0
SYMATTR InstName R5
SYMATTR Value 100
SYMBOL res 976 480 R0
SYMATTR InstName R6
SYMATTR Value 100
TEXT 1184 88 Left 2 !.tran 0 10m 0 1u uic
