Version 4
SHEET 1 1260 680
WIRE 192 -48 176 -48
WIRE 368 -48 192 -48
WIRE 576 -48 368 -48
WIRE 32 -32 16 -32
WIRE 176 -32 96 -32
WIRE 368 0 368 -48
WIRE 576 0 576 -48
WIRE 16 32 16 -32
WIRE 160 32 16 32
WIRE 368 96 368 80
WIRE 368 96 32 96
WIRE 368 128 368 96
WIRE 576 128 576 80
WIRE 160 144 160 32
WIRE 176 144 176 -32
WIRE 192 144 192 -48
WIRE 32 160 32 96
WIRE 144 160 32 160
WIRE 304 176 208 176
WIRE -48 192 -272 192
WIRE 144 192 -48 192
WIRE 368 256 368 224
WIRE 176 304 176 208
WIRE 176 304 144 304
WIRE -272 320 -272 272
WIRE 144 352 144 304
WIRE 368 400 368 336
WIRE 144 480 144 432
FLAG 368 400 0
FLAG 576 128 0
FLAG -48 192 Vctl
FLAG -272 320 0
FLAG 144 480 0
SYMBOL pnp 304 224 M180
SYMATTR InstName Q1
SYMATTR Value 2N2907
SYMBOL res 352 240 R0
SYMATTR InstName R1
SYMATTR Value 50k
SYMBOL res 352 -16 R0
SYMATTR InstName R2
SYMATTR Value 1Meg
SYMBOL voltage 576 -16 R0
WINDOW 123 0 0 Left 2
WINDOW 39 0 0 Left 2
SYMATTR InstName V1
SYMATTR Value 5v
SYMBOL voltage -272 176 R0
WINDOW 123 0 0 Left 2
WINDOW 39 0 0 Left 2
SYMATTR InstName V2
SYMATTR Value PULSE(0 {Vctl} 2m 1n 1n 5m)
SYMBOL voltage 144 336 R0
WINDOW 123 0 0 Left 2
WINDOW 39 0 0 Left 2
SYMATTR InstName V3
SYMATTR Value -5V
SYMBOL Opamps\\LT1008 176 112 R0
SYMATTR InstName U1
SYMBOL cap 96 -48 R90
WINDOW 0 0 32 VBottom 2
WINDOW 3 32 32 VTop 2
SYMATTR InstName C1
SYMATTR Value 1000p
TEXT 816 144 Left 2 !;op
TEXT 816 168 Left 2 !.tran 0 10m 0 1u
TEXT 816 104 Left 2 !.params Vctl=0
TEXT 816 72 Left 2 !.step param Vctl LIST 1 2 3 4
