.SUBCKT AO3402 4 1 2
M1  3 5 8 8 NMOS W=387192u  L=1.0u 
M2  8 5 8 3 PMOS W=387192u  L=0.7u
R1  7 3     RTEMP 28E-3
LD  4 7 1E-9
LS  8 9 1.5E-9
RWire 9 2 RTWIRE 5e-3 
RG 1 6 1.2
LG 6 5 3E-9
CGS 5 2     1E-12
DBD 8 3     DBD
**************************************************************************
.MODEL  NMOS       NMOS  (LEVEL  = 3               TOX    = 2.5E-8
+ RS     = 0              RD     = 0               NSUB   = 2E17  
+ UO =  300		  	  THETA  = 0.07             VTO=1.4
+ VMAX   = 5e6             XJ     = 4E-7            KAPPA  = 1.1
+ ETA    = 0              TPG    = 1  
+ IS     = 0              LD     = 0                           
+ CGSO   = 0              CGDO   = 0               CGBO   = 0 
+ NFS    = 0         DELTA  = 0)
*************************************************************************
.MODEL  PMOS       PMOS (LEVEL   = 3               TOX    = 2.5E-8
+NSUB    = 3.0e16    VTO=-1.25    TPG    = -1)   
*************************************************************************
.MODEL DBD D (CJO=50E-12     VJ=0.6    M=0.5
+RS=0.0 FC=0.5 IS=3E-11 TT=1e-8 N=1.0 BV=36 IBV=1E-4)
*************************************************************************
.MODEL RTEMP RES (TC1=5E-3   TC2=0)
.MODEL RTWIRE RES (TC1=5E-3  TC2=0)
*************************************************************************
.ENDS  

